<?xml version="1.0" encoding="UTF-8"?>

<!-- generated on 2024-05-04 18:13:04.347545 by randomTrips.py UNKNOWN
<configuration>
    <net-file value="map/jhumap2.net.xml"/>
    <route-file value="your_output_routes.rou.xml"/>
    <length value="True"/>
    <end value="100.0"/>
</configuration>
-->

<!-- generated on 2024-05-04 18:13:04 by Eclipse SUMO duarouter Version 1.19.0
<configuration xmlns:xsi="http://www.w3.org/2001/XMLSchema-instance" xsi:noNamespaceSchemaLocation="http://sumo.dlr.de/xsd/duarouterConfiguration.xsd">

    <input>
        <net-file value="map/jhumap2.net.xml"/>
        <route-files value="trips.trips.xml"/>
    </input>

    <output>
        <output-file value="your_output_routes.rou.xml"/>
        <alternatives-output value="NUL"/>
    </output>

    <time>
        <begin value="0"/>
        <end value="100.0"/>
    </time>

    <report>
        <no-warnings value="true"/>
        <ignore-errors value="true"/>
        <no-step-log value="true"/>
    </report>

</configuration>
-->

<routes xmlns:xsi="http://www.w3.org/2001/XMLSchema-instance" xsi:noNamespaceSchemaLocation="http://sumo.dlr.de/xsd/routes_file.xsd">

    <vType id="normalCar" accel="2.6" decel="4.5" sigma="0.5" length="5" minGap="2.5" maxSpeed="33.33" guiShape="passenger" 
           lcStrategic="1.0" lcSpeedGain="0.5" lcCooperative="0.5" lcKeepRight="1.0" emergencyDecel="4.5"/>
    <vType id="emergencyVehicle" accel="3.0" decel="4.5" sigma="0.5" length="6.5" minGap="2.0" maxSpeed="60" color="red" guiShape="emergency" 
           emergencyDecel="9.0" lcStrategic="1.0" lcSpeedGain="1.0" lcCooperative="0.5" lcKeepRight="0.3"/>


    <vehicle id="emergency1" type="emergencyVehicle" depart="0.00">
        <route edges = "375012288#1 111782596#2 -117446409#4 -117446409#3 -117446409#2 130451981#2 130451981#3 375012288#0 375012288#1 375012288#5 947448834#1 425002736#1 399093877#1 455277311#1 -455277308#4 -455277308#2 -369149192 375706787#0 375706787#1 818850670 818850643 818850680 818862103#1 132381955#0 132381956"/>
    </vehicle>

    <vehicle id="emergency2" type="emergencyVehicle" depart="1.00">
        <route edges = "375012288#1 111782596#2 -117446409#4 -117446409#3 -117446409#2 130451981#2 130451981#3 375012288#0 375012288#1 375012288#5 947448834#1 425002736#1 399093877#1 455277311#1 -455277308#4 -455277308#2 -369149192 375706787#0 375706787#1 818850670 818850643 818850680 818862103#1 132381955#0 132381956"/>
    </vehicle>



    <vehicle id="0" type="normalCar" depart="0.00">
        <route edges="375012288#1 111782596#2 -117446409#4 -117446409#3 -117446409#2"/>
    </vehicle>
    <vehicle id="1" type="normalCar" depart="1.00">
        <route edges="114055266#2"/>
    </vehicle>
    <vehicle id="2" type="normalCar" depart="2.00">
        <route edges="425002736#1 399093877#1 455277311#1"/>
    </vehicle>
    <vehicle id="3" type="normalCar" depart="3.00">
        <route edges="6013605#0 -125266910#4 -125266910#2 -125266910#1 -947448831#2 -947448831#1 -1264199706#0"/>
    </vehicle>
    <vehicle id="4" type="normalCar" depart="4.00">
        <route edges="1264199706#0 -375706785#5 -375706785#3 -375706785#1 1027139279 543768349#0 111782596#2 -117446409#4 -117446409#3 -117446409#2"/>
    </vehicle>
    <vehicle id="5" type="normalCar" depart="5.00">
        <route edges="1027139279 543768349#0 375012288#5 375012288#8"/>
    </vehicle>
    <vehicle id="6" type="normalCar" depart="6.00">
        <route edges="-1158269759#1 -375706785#5 -375706785#3 -375706785#1 1027139279 543768349#0 111782596#2"/>
    </vehicle>
    <vehicle id="7" type="normalCar" depart="7.00">
        <route edges="375012288#5 947448834#1 425002736#1 399093877#1 455277311#1 375012289#1"/>
    </vehicle>
    <vehicle id="8" type="normalCar" depart="8.00">
        <route edges="1027139279 543768349#0 425002736#1 399093877#1 455277311#1 -455277308#4 -455277308#2 -369149192 375706787#0 375706787#1"/>
    </vehicle>
    <vehicle id="9" type="normalCar" depart="9.00">
        <route edges="522343538#1 130451981#2 130451981#3 375012288#0 375012288#1 375012288#5 125266910#1 125266910#2 125266910#4 -1038777897#0"/>
    </vehicle>
    <vehicle id="10" type="normalCar" depart="10.00">
        <route edges="522343538#1"/>
    </vehicle>
    <vehicle id="11" type="normalCar" depart="11.00">
        <route edges="114746202 117446410#0 114055266#2 114055266#3 130451981#2 130451981#3 375012288#0 375012288#1 375012288#5 -947448831#2 -947448831#1"/>
    </vehicle>
    <vehicle id="12" type="normalCar" depart="12.00">
        <route edges="947448831#1 947448831#2 947448834#1 111782596#2 -117446409#4 -117446409#3 -117446409#2 130451981#2"/>
    </vehicle>
    <vehicle id="13" type="normalCar" depart="13.00">
        <route edges="-375706785#1 375706785#1 375706785#3 375706785#5 -1264199706#0"/>
    </vehicle>
    <vehicle id="14" type="normalCar" depart="14.00">
        <route edges="543918805#0 979417612#0 132609861#2 455277311#1 -455277308#4 -455277308#2 -369149192 375706787#0 375706787#1"/>
    </vehicle>
    <vehicle id="15" type="normalCar" depart="15.00">
        <route edges="522343538#1 522343538#2"/>
    </vehicle>
    <vehicle id="16" type="normalCar" depart="16.00">
        <route edges="132609849#0 947448834#1 425002736#1 399093877#1 809232451#1 809232451#2 809232451#3 818850670 818850643 818850680 818862103#1 132381955#0 972954821#1"/>
    </vehicle>
    <vehicle id="17" type="normalCar" depart="17.00">
        <route edges="125266910#2 125266910#4 -125266910#4 -125266910#2 -125266910#1 947448834#1 425002736#1 399093877#1 455277311#1 375012289#1"/>
    </vehicle>
    <vehicle id="19" type="normalCar" depart="19.00">
        <route edges="6013605#0 -125266910#4 -125266910#2 -125266910#1 -947448831#2 -947448831#1 -375706785#5 -375706785#3 -375706785#1 375706785#1 375706785#3 375706785#5"/>
    </vehicle>
    <vehicle id="20" type="normalCar" depart="20.00">
        <route edges="375706787#1 979417612#0 132609861#2 375012288#0 375012288#1 375012288#5 125266910#1 125266910#2 125266910#4 -125266910#4 -125266910#2 -125266910#1"/>
    </vehicle>
    <vehicle id="21" type="normalCar" depart="21.00">
        <route edges="1027139279 543768349#0 375012288#5 125266910#1"/>
    </vehicle>
    <vehicle id="22" type="normalCar" depart="22.00">
        <route edges="-125266910#4 -125266910#2 -125266910#1 947448834#1 425002736#1 399093877#1 809232451#1 809232451#2 809232451#3 818850670 818850643 818850680 818862103#1 114055266#2 114055266#3"/>
    </vehicle>
    <vehicle id="23" type="normalCar" depart="23.00">
        <route edges="-375706785#3 -375706785#1 1027139279 543768349#0 425002736#1 399093877#1 522343538#1 117446409#2 117446409#3 117446409#4"/>
    </vehicle>
    <vehicle id="24" type="normalCar" depart="24.00">
        <route edges="375012288#0 375012288#1 425002736#1 399093877#1 809232451#1 809232451#2 809232451#3 818850670 818850643 818850680 818862103#1 132381955#0 132381956"/>
    </vehicle>
    <vehicle id="25" type="normalCar" depart="25.00">
        <route edges="125266910#1 125266910#2 125266910#4 -125266910#4 -125266910#2 -125266910#1 947448834#1 111782596#2"/>
    </vehicle>
    <vehicle id="26" type="normalCar" depart="26.00">
        <route edges="111782596#2 -117446409#4 -117446409#3 -117446409#2 130451981#2 130451981#3 375012288#0 375012288#1 375012288#5 947448834#1"/>
    </vehicle>
    <vehicle id="27" type="normalCar" depart="27.00">
        <route edges="375012288#5 947448834#1 425002736#1 399093877#1 455277311#1 -455277308#4 -455277308#2 -369149192 375706787#0 375706787#1"/>
    </vehicle>
    <vehicle id="28" type="normalCar" depart="28.00">
        <route edges="-6011538#2 -125266910#4 -125266910#2 -125266910#1 947448834#1 425002736#1 399093877#1 522343538#1 522343538#2"/>
    </vehicle>
    <vehicle id="29" type="normalCar" depart="29.00">
        <route edges="-6011538#2 -125266910#4 -125266910#2 -125266910#1 947448834#1 425002736#1 399093877#1 809232451#1 809232451#2 809232451#3 818850670 818850643 818850680 818862103#1 132381955#0 132381956"/>
    </vehicle>
    <vehicle id="30" type="normalCar" depart="30.00">
        <route edges="947448834#1 111782596#2 111782596#5 425002740 425002742"/>
    </vehicle>
    <vehicle id="31" type="normalCar" depart="31.00">
        <route edges="132609849#0 947448834#1 425002736#1 399093877#1 455277311#1"/>
    </vehicle>
    <vehicle id="32" type="normalCar" depart="32.00">
        <route edges="543768349#0"/>
    </vehicle>
    <vehicle id="33" type="normalCar" depart="33.00">
        <route edges="1027139279 543768349#0 111782596#2 -117446409#4 -117446409#3"/>
    </vehicle>
    <vehicle id="34" type="normalCar" depart="34.00">
        <route edges="114746202 117446410#0 114055266#2 114055266#3 117446409#2"/>
    </vehicle>
    <vehicle id="35" type="normalCar" depart="35.00">
        <route edges="-947448831#2 -947448831#1 -375706785#5 -375706785#3 -375706785#1 1027139279 543768349#0 425002736#1 399093877#1 809232451#1 809232451#2 809232451#3 818850670 818850643 818850680 818862103#1 132381955#0 972954821#1"/>
    </vehicle>
    <vehicle id="36" type="normalCar" depart="36.00">
        <route edges="6013605#0 -125266910#4 -125266910#2 -125266910#1 125266910#1 125266910#2 125266910#4"/>
    </vehicle>
    <vehicle id="37" type="normalCar" depart="37.00">
        <route edges="375012288#5 947448834#1 425002736#1 399093877#1 809232451#1 809232451#2 809232451#3 818850670 818850643 818850680 818862103#1 132381955#0 132381956"/>
    </vehicle>
    <vehicle id="38" type="normalCar" depart="38.00">
        <route edges="809232451#3 818850670 818850643 818850680 818862103#1 114055266#2 114055266#3 130451981#2 130451981#3 375012288#0"/>
    </vehicle>
    <vehicle id="39" type="normalCar" depart="39.00">
        <route edges="111782596#2 -117446409#4 -117446409#3 -117446409#2 130451981#2 130451981#3 455277311#1 1085618316#1 1085618316#3 375706785#1 375706785#3 375706785#5 1158269759#1"/>
    </vehicle>
    <vehicle id="40" type="normalCar" depart="40.00">
        <route edges="132609861#2 455277311#1 1085618316#1 1085618316#3 375706785#1 375706785#3 375706785#5 1158269759#1"/>
    </vehicle>
    <vehicle id="41" type="normalCar" depart="41.00">
        <route edges="369149190 179973403#1 818862072 132609915#0 132609915#1 543918805#0 979417612#0 132609861#2 375012288#0 375012288#1 375012288#5 -947448831#2 -947448831#1 947448831#1"/>
    </vehicle>
    <vehicle id="42" type="normalCar" depart="42.00">
        <route edges="125266910#4 -125266910#4 -125266910#2 -125266910#1 947448834#1 425002736#1 399093877#1 809232451#1 809232451#2 809232451#3 818850670 818850643 818850680 818862103#1 114055266#2"/>
    </vehicle>
    <vehicle id="43" type="normalCar" depart="43.00">
        <route edges="979417612#0 132609861#2 375012288#0 375012288#1 375012288#5 375012288#8"/>
    </vehicle>
    <vehicle id="44" type="normalCar" depart="44.00">
        <route edges="-125266910#4 -125266910#2"/>
    </vehicle>
    <vehicle id="45" type="normalCar" depart="45.00">
        <route edges="-455277308#2 455277308#1 455277308#3 1085618316#1 1085618316#3 1027139279 543768349#0 111782596#2 111782596#5 425002740"/>
    </vehicle>
    <vehicle id="46" type="normalCar" depart="46.00">
        <route edges="455277311#1 -455277308#4 -455277308#2 -369149192 375706787#0 375706787#1 818850670 818850643 818850680 818862103#1 132381955#0 132381956"/>
    </vehicle>
    <vehicle id="47" type="normalCar" depart="47.00">
        <route edges="-125266910#1 947448834#1 425002736#1 399093877#1 809232451#1 809232451#2 809232451#3 818850670 818850643 818850680 818862103#1 132381955#0 132381956"/>
    </vehicle>
    <vehicle id="48" type="normalCar" depart="48.00">
        <route edges="979417612#0 132609861#2 375012288#0 375012288#1 375012288#5 375012288#8"/>
    </vehicle>
    <vehicle id="49" type="normalCar" depart="49.00">
        <route edges="947448834#1 425002736#1 399093877#1 809232451#1 809232451#2 809232451#3"/>
    </vehicle>
    <vehicle id="50" type="normalCar" depart="50.00">
        <route edges="-1085618316#3 -1085618316#2 1085618316#1 1085618316#3 1027139279 543768349#0 425002736#1 399093877#1 522343538#1 522343538#2"/>
    </vehicle>
    <vehicle id="51" type="normalCar" depart="51.00">
        <route edges="375706786#0 375706787#0 375706787#1 979417612#0 132609861#2 375012288#0 375012288#1 375012288#5 375012288#8"/>
    </vehicle>
    <vehicle id="52" type="normalCar" depart="52.00">
        <route edges="111782596#2 111782596#5 425002740 425002742 426816164#1"/>
    </vehicle>
    <vehicle id="53" type="normalCar" depart="53.00">
        <route edges="-455277308#2 -369149192 375706787#0 375706787#1 979417612#0 132609861#2"/>
    </vehicle>
    <vehicle id="54" type="normalCar" depart="54.00">
        <route edges="1267368800#0 1027139279 543768349#0 425002736#1 399093877#1 809232451#1 809232451#2 809232451#3 818850670 818850643 818850680 818862103#1 132381955#0 972954821#1"/>
    </vehicle>
    <vehicle id="55" type="normalCar" depart="55.00">
        <route edges="6013605#0 -125266910#4 -125266910#2 -125266910#1 -947448831#2 -947448831#1 1158269759#1"/>
    </vehicle>
    <vehicle id="56" type="normalCar" depart="56.00">
        <route edges="130451981#2 130451981#3 455277311#1 1085618316#1 1085618316#3 1027139279"/>
    </vehicle>
    <vehicle id="57" type="normalCar" depart="57.00">
        <route edges="809232451#1 809232451#2 809232451#3 818850670"/>
    </vehicle>
    <vehicle id="58" type="normalCar" depart="58.00">
        <route edges="114746202 117446410#0 114055266#2 114055266#3 117446409#2 117446409#3 117446409#4 111782596#5 425002740 425002742"/>
    </vehicle>
    <vehicle id="59" type="normalCar" depart="59.00">
        <route edges="369149190 179973403#1 818862072 132609915#0 132609915#1 543918805#0 979417612#0 132609861#2 375012288#0 375012288#1 375012288#5 -947448831#2 -947448831#1"/>
    </vehicle>
    <vehicle id="60" type="normalCar" depart="60.00">
        <route edges="455277308#1 455277308#3 1085618316#1 1085618316#3 1027139279 543768349#0 375012288#5 375012288#8"/>
    </vehicle>
    <vehicle id="61" type="normalCar" depart="61.00">
        <route edges="455277311#1 1085618316#1 1085618316#3 1027139279 543768349#0 375012288#5 375012288#8"/>
    </vehicle>
    <vehicle id="63" type="normalCar" depart="63.00">
        <route edges="-1158269759#1 947448831#1 947448831#2 947448834#1"/>
    </vehicle>
    <vehicle id="64" type="normalCar" depart="64.00">
        <route edges="6013605#0 6011538#0"/>
    </vehicle>
    <vehicle id="65" type="normalCar" depart="65.00">
        <route edges="114746202 117446410#0 114055266#2 114055266#3 130451981#2 130451981#3 375012288#0 375012288#1 375012288#5 125266910#1 125266910#2 125266910#4 -125266910#4 -125266910#2"/>
    </vehicle>
    <vehicle id="66" type="normalCar" depart="66.00">
        <route edges="6013605#0 -125266910#4 -125266910#2 -125266910#1 947448834#1 425002736#1 399093877#1 809232451#1 809232451#2 809232451#3 818850670 818850643 818850680 818862103#1 132381955#0 972954821#1"/>
    </vehicle>
    <vehicle id="67" type="normalCar" depart="67.00">
        <route edges="-125266910#4 -125266910#2 -125266910#1 947448834#1 425002736#1 399093877#1 375012288#0 375012288#1 375012288#5"/>
    </vehicle>
    <vehicle id="68" type="normalCar" depart="68.00">
        <route edges="-125266910#2 -125266910#1 947448834#1 425002736#1 399093877#1 522343538#1 522343538#2 522343538#3"/>
    </vehicle>
    <vehicle id="69" type="normalCar" depart="69.00">
        <route edges="455277308#3 -455277308#4"/>
    </vehicle>
    <vehicle id="70" type="normalCar" depart="70.00">
        <route edges="130451981#0 130451981#1 130451981#2 130451981#3 455277311#1 375012289#1"/>
    </vehicle>
    <vehicle id="71" type="normalCar" depart="71.00">
        <route edges="111782596#2 -117446409#4 -117446409#3 -117446409#2 130451981#2 130451981#3 809232451#1 809232451#2 809232451#3 818850670"/>
    </vehicle>
    <vehicle id="72" type="normalCar" depart="72.00">
        <route edges="1264199706#0 -375706785#5 -375706785#3 -375706785#1 1027139279 543768349#0 111782596#2"/>
    </vehicle>
    <vehicle id="73" type="normalCar" depart="73.00">
        <route edges="132609849#0 947448834#1 425002736#1 399093877#1 522343538#1 522343538#2"/>
    </vehicle>
    <vehicle id="74" type="normalCar" depart="74.00">
        <route edges="-947448831#1 947448831#1 947448831#2 125266910#1 125266910#2 125266910#4"/>
    </vehicle>
    <vehicle id="75" type="normalCar" depart="75.00">
        <route edges="979417612#0 132609861#2 455277311#1 -455277308#4 -455277308#2 455277308#1"/>
    </vehicle>
    <vehicle id="76" type="normalCar" depart="76.00">
        <route edges="1267368800#0 1027139279 543768349#0 375012288#5 375012288#8"/>
    </vehicle>
    <vehicle id="77" type="normalCar" depart="77.00">
        <route edges="-455277308#4 -455277308#2 -369149192 375706787#0 375706787#1 818850670 818850643 818850680 818862103#1 114055266#2"/>
    </vehicle>
    <vehicle id="78" type="normalCar" depart="78.00">
        <route edges="114746202 117446410#0 114055266#2 114055266#3 130451981#2 130451981#3 455277311#1 -455277308#4 -455277308#2 -369149192 375706787#0 375706787#1"/>
    </vehicle>
    <vehicle id="79" type="normalCar" depart="79.00">
        <route edges="1027139279 543768349#0 425002736#1 399093877#1 809232451#1 809232451#2 809232451#3 818850670 818850643 818850680 818862103#1 114055266#2"/>
    </vehicle>
    <vehicle id="80" type="normalCar" depart="80.00">
        <route edges="-125266910#2 -125266910#1 947448834#1 111782596#2 111782596#5 425002740 425002742"/>
    </vehicle>
    <vehicle id="81" type="normalCar" depart="81.00">
        <route edges="1027139279 543768349#0 375012288#5 -947448831#2 -947448831#1 947448831#1"/>
    </vehicle>
    <vehicle id="82" type="normalCar" depart="82.00">
        <route edges="6013605#0 -125266910#4"/>
    </vehicle>
    <vehicle id="83" type="normalCar" depart="83.00">
        <route edges="1085618316#1 1085618316#3 -1085618316#3 -1085618316#2 -455277308#4 -455277308#2 455277308#1 455277308#3"/>
    </vehicle>
    <vehicle id="84" type="normalCar" depart="84.00">
        <route edges="1027139279 543768349#0 425002736#1 399093877#1 455277311#1 -455277308#4"/>
    </vehicle>
    <vehicle id="85" type="normalCar" depart="85.00">
        <route edges="818850680 818862103#1 114055266#2 114055266#3 130451981#2 130451981#3 455277311#1 1085618316#1 1085618316#3 375706785#1"/>
    </vehicle>
    <vehicle id="87" type="normalCar" depart="87.00">
        <route edges="522343538#1 130451981#2 130451981#3 455277311#1 1085618316#1 1085618316#3"/>
    </vehicle>
    <vehicle id="88" type="normalCar" depart="88.00">
        <route edges="-375706785#1 1027139279 543768349#0 425002736#1 399093877#1 809232451#1 132609861#2"/>
    </vehicle>
    <vehicle id="89" type="normalCar" depart="89.00">
        <route edges="1264199706#0 -375706785#5 -375706785#3 -375706785#1 1027139279 543768349#0 425002736#1 399093877#1 375012288#0 375012288#1"/>
    </vehicle>
    <vehicle id="90" type="normalCar" depart="90.00">
        <route edges="399093877#1 455277311#1"/>
    </vehicle>
    <vehicle id="91" type="normalCar" depart="91.00">
        <route edges="947448834#1 425002736#1 399093877#1 455277311#1 1085618316#1 1085618316#3 375706785#1 375706785#3 375706785#5 -1264199706#0"/>
    </vehicle>
    <vehicle id="92" type="normalCar" depart="92.00">
        <route edges="1264199706#0 -375706785#5 -375706785#3 -375706785#1 1027139279 543768349#0 111782596#2 -117446409#4 -117446409#3 -117446409#2 130451981#2"/>
    </vehicle>
    <vehicle id="93" type="normalCar" depart="93.00">
        <route edges="6013605#0 -125266910#4 -125266910#2 -125266910#1 -947448831#2 -947448831#1 1158269759#1"/>
    </vehicle>
    <vehicle id="95" type="normalCar" depart="95.00">
        <route edges="1264199706#0 -375706785#5 -375706785#3 -375706785#1 1027139279 543768349#0 425002736#1 399093877#1 522343538#1 117446409#2 117446409#3 117446409#4"/>
    </vehicle>
    <vehicle id="96" type="normalCar" depart="96.00">
        <route edges="1085618316#3 1027139279 543768349#0 375012288#5 947448834#1"/>
    </vehicle>
    <vehicle id="97" type="normalCar" depart="97.00">
        <route edges="1267368800#0 1027139279 543768349#0 425002736#1 399093877#1 809232451#1 809232451#2 809232451#3"/>
    </vehicle>
    <vehicle id="98" type="normalCar" depart="98.00">
        <route edges="132609849#0 125266910#1 125266910#2 125266910#4 -125266910#4 -125266910#2"/>
    </vehicle>
    <vehicle id="99" type="normalCar" depart="99.00">
        <route edges="979417612#0 132609861#2 375012288#0 375012288#1 375012288#5 125266910#1 125266910#2 125266910#4 6011538#0"/>
    </vehicle>
</routes>
