<?xml version="1.0" encoding="UTF-8"?>

<!-- generated on 2024-05-04 17:23:21 by Eclipse SUMO netconvert Version 1.19.0
<configuration xmlns:xsi="http://www.w3.org/2001/XMLSchema-instance" xsi:noNamespaceSchemaLocation="http://sumo.dlr.de/xsd/netconvertConfiguration.xsd">

    <input>
        <osm-files value="jhu_min.osm"/>
    </input>

    <output>
        <output-file value="jhumap.net.xml"/>
    </output>

    <projection>
        <proj.utm value="true"/>
    </projection>

</configuration>
-->

<net version="1.16" junctionCornerDetail="5" limitTurnSpeed="5.50" xmlns:xsi="http://www.w3.org/2001/XMLSchema-instance" xsi:noNamespaceSchemaLocation="http://sumo.dlr.de/xsd/net_file.xsd">

    <location netOffset="-360275.20,-4353890.41" convBoundary="0.00,0.00,869.10,1036.99" origBoundary="-76.621016,39.323201,-76.610995,39.332531" projParameter="+proj=utm +zone=18 +ellps=WGS84 +datum=WGS84 +units=m +no_defs"/>

    <type id="highway.cycleway" priority="1" numLanes="1" speed="5.56" allow="bicycle" oneway="0" width="2.00"/>
    <type id="highway.footway" priority="1" numLanes="1" speed="2.78" allow="pedestrian" oneway="1" width="2.00"/>
    <type id="highway.primary" priority="12" numLanes="2" speed="27.78" disallow="tram rail_urban rail rail_electric rail_fast ship" oneway="0"/>
    <type id="highway.residential" priority="3" numLanes="1" speed="13.89" disallow="tram rail_urban rail rail_electric rail_fast ship" oneway="0"/>
    <type id="highway.secondary" priority="11" numLanes="1" speed="27.78" disallow="tram rail_urban rail rail_electric rail_fast ship" oneway="0"/>
    <type id="highway.service" priority="1" numLanes="1" speed="5.56" allow="pedestrian delivery bicycle" oneway="0"/>
    <type id="highway.steps" priority="1" numLanes="1" speed="1.39" allow="pedestrian" oneway="1" width="2.00"/>

    <edge id=":10292660043_0" function="internal">
        <lane id=":10292660043_0_0" index="0" disallow="tram rail_urban rail rail_electric rail_fast ship" speed="11.18" length="8.21" shape="649.15,662.57 648.93,670.78"/>
    </edge>
    <edge id=":10292660043_1" function="internal">
        <lane id=":10292660043_1_0" index="0" allow="pedestrian delivery bicycle" speed="6.82" length="3.30" shape="649.15,662.57 648.69,665.35 648.43,665.76"/>
    </edge>
    <edge id=":10292660043_7" function="internal">
        <lane id=":10292660043_7_0" index="0" allow="pedestrian delivery bicycle" speed="6.82" length="6.84" shape="648.43,665.76 647.46,667.29 645.48,668.40 642.73,668.68"/>
    </edge>
    <edge id=":10292660043_2" function="internal">
        <lane id=":10292660043_2_0" index="0" allow="pedestrian delivery bicycle" speed="4.98" length="4.92" shape="642.87,665.48 644.19,665.34 645.14,664.80 645.73,663.85 645.95,662.49"/>
    </edge>
    <edge id=":10292660043_3" function="internal">
        <lane id=":10292660043_3_0" index="0" allow="pedestrian delivery bicycle" speed="6.57" length="9.12" shape="642.87,665.48 645.58,665.91 647.49,666.94 648.60,668.57 648.93,670.78"/>
    </edge>
    <edge id=":10292660043_4" function="internal">
        <lane id=":10292660043_4_0" index="0" allow="pedestrian delivery bicycle" speed="3.65" length="4.67" shape="642.87,665.48 644.04,666.33 644.40,667.15 643.97,667.93 642.73,668.68"/>
    </edge>
    <edge id=":10292660043_5" function="internal">
        <lane id=":10292660043_5_0" index="0" allow="pedestrian delivery bicycle" speed="4.65" length="4.04" shape="645.73,670.70 645.56,669.86 645.01,669.25 644.07,668.85 642.73,668.68"/>
    </edge>
    <edge id=":10292660043_6" function="internal">
        <lane id=":10292660043_6_0" index="0" disallow="tram rail_urban rail rail_electric rail_fast ship" speed="11.18" length="8.21" shape="645.73,670.70 645.95,662.49"/>
    </edge>
    <edge id=":10292660044_0" function="internal">
        <lane id=":10292660044_0_0" index="0" allow="pedestrian delivery bicycle" speed="3.65" length="4.67" shape="618.55,667.64 617.38,666.79 617.02,665.97 617.45,665.19 618.68,664.44"/>
    </edge>
    <edge id=":10292660045_0" function="internal">
        <lane id=":10292660045_0_0" index="0" allow="pedestrian delivery bicycle" speed="5.10" length="5.07" shape="633.90,668.29 632.54,668.43 631.55,668.99 630.91,669.96 630.64,671.34"/>
    </edge>
    <edge id=":10292660045_1" function="internal">
        <lane id=":10292660045_1_0" index="0" allow="pedestrian delivery bicycle" speed="5.56" length="9.40" shape="633.90,668.29 624.50,667.89"/>
    </edge>
    <edge id=":10292660045_2" function="internal">
        <lane id=":10292660045_2_0" index="0" allow="pedestrian delivery bicycle" speed="3.65" length="4.67" shape="633.90,668.29 632.73,667.44 632.37,666.63 632.80,665.84 634.04,665.10"/>
    </edge>
    <edge id=":10292660045_3" function="internal">
        <lane id=":10292660045_3_0" index="0" allow="pedestrian delivery bicycle" speed="5.56" length="9.41" shape="624.64,664.69 634.04,665.10"/>
    </edge>
    <edge id=":10292660045_4" function="internal">
        <lane id=":10292660045_4_0" index="0" allow="pedestrian delivery bicycle" speed="5.56" length="10.25" shape="624.64,664.69 627.40,665.21 629.33,666.49 630.40,668.53 630.64,671.34"/>
    </edge>
    <edge id=":10292660045_5" function="internal">
        <lane id=":10292660045_5_0" index="0" allow="pedestrian delivery bicycle" speed="3.65" length="4.67" shape="624.64,664.69 625.80,665.54 626.17,666.36 625.74,667.14 624.50,667.89"/>
    </edge>
    <edge id=":10292660045_6" function="internal">
        <lane id=":10292660045_6_0" index="0" allow="pedestrian delivery bicycle" speed="5.02" length="5.02" shape="627.44,671.15 627.33,669.77 626.80,668.77 625.86,668.14 624.50,667.89"/>
    </edge>
    <edge id=":10292660045_7" function="internal">
        <lane id=":10292660045_7_0" index="0" allow="pedestrian delivery bicycle" speed="5.56" length="10.17" shape="627.44,671.15 627.99,668.40 629.28,666.47 631.29,665.37 634.04,665.10"/>
    </edge>
    <edge id=":10292660045_8" function="internal">
        <lane id=":10292660045_8_0" index="0" allow="pedestrian delivery bicycle" speed="3.65" length="4.67" shape="627.44,671.15 628.31,670.00 629.13,669.64 629.91,670.09 630.64,671.34"/>
    </edge>
    <edge id=":10292660046_0" function="internal">
        <lane id=":10292660046_0_0" index="0" allow="pedestrian delivery bicycle" speed="3.65" length="4.67" shape="630.55,672.70 629.68,673.85 628.86,674.20 628.09,673.76 627.36,672.51"/>
    </edge>
    <edge id=":10292660047_0" function="internal">
        <lane id=":10292660047_0_0" index="0" allow="pedestrian delivery bicycle" speed="5.56" length="5.11" shape="642.61,668.67 637.50,668.45"/>
    </edge>
    <edge id=":10292660047_1" function="internal">
        <lane id=":10292660047_1_0" index="0" allow="pedestrian delivery bicycle" speed="3.65" length="1.44" shape="642.61,668.67 641.44,667.82"/>
    </edge>
    <edge id=":10292660047_4" function="internal">
        <lane id=":10292660047_4_0" index="0" allow="pedestrian delivery bicycle" speed="3.65" length="3.23" shape="641.44,667.82 641.08,667.00 641.51,666.22 642.75,665.48"/>
    </edge>
    <edge id=":10292660047_2" function="internal">
        <lane id=":10292660047_2_0" index="0" allow="pedestrian delivery bicycle" speed="5.56" length="5.11" shape="637.64,665.25 642.75,665.48"/>
    </edge>
    <edge id=":10292660047_3" function="internal">
        <lane id=":10292660047_3_0" index="0" allow="pedestrian delivery bicycle" speed="3.65" length="1.44" shape="637.64,665.25 638.80,666.11"/>
    </edge>
    <edge id=":10292660047_5" function="internal">
        <lane id=":10292660047_5_0" index="0" allow="pedestrian delivery bicycle" speed="3.65" length="3.23" shape="638.80,666.11 639.17,666.92 638.73,667.70 637.50,668.45"/>
    </edge>
    <edge id=":11012364143_0" function="internal">
        <lane id=":11012364143_0_0" index="0" allow="pedestrian delivery bicycle" speed="5.56" length="0.10" shape="364.19,563.66 364.19,563.66"/>
    </edge>
    <edge id=":11012364144_0" function="internal">
        <lane id=":11012364144_0_0" index="0" allow="pedestrian delivery bicycle" speed="5.56" length="0.10" shape="363.79,582.90 363.79,582.90"/>
    </edge>
    <edge id=":11166083253_0" function="internal">
        <lane id=":11166083253_0_0" index="0" allow="bicycle" speed="5.20" length="5.74" width="2.00" shape="289.77,411.06 288.68,410.74 287.92,409.87 287.49,408.45 287.39,406.48"/>
    </edge>
    <edge id=":11166083253_1" function="internal">
        <lane id=":11166083253_1_0" index="0" allow="bicycle" speed="2.89" length="2.92" width="2.00" shape="289.77,411.06 289.04,410.53 288.80,410.02 289.07,409.53 289.84,409.06"/>
    </edge>
    <edge id=":11166083253_2" function="internal">
        <lane id=":11166083253_2_0" index="0" allow="bicycle" speed="11.18" length="6.14" width="2.00" shape="285.22,412.56 285.39,406.42"/>
        <lane id=":11166083253_2_1" index="1" allow="bicycle" speed="11.18" length="6.14" width="2.00" shape="287.22,412.61 287.39,406.48"/>
    </edge>
    <edge id=":11166083253_4" function="internal">
        <lane id=":11166083253_4_0" index="0" allow="bicycle" speed="4.86" length="4.99" width="2.00" shape="287.22,412.61 287.42,411.03 287.93,409.90 288.73,409.25 289.84,409.06"/>
    </edge>
    <edge id=":11592056388_0" function="internal">
        <lane id=":11592056388_0_0" index="0" disallow="tram rail_urban rail rail_electric rail_fast ship" speed="11.18" length="3.62" shape="414.86,661.96 418.48,662.03"/>
    </edge>
    <edge id=":1245504056_0" function="internal">
        <lane id=":1245504056_0_0" index="0" allow="pedestrian delivery bicycle" speed="5.04" length="5.00" shape="448.01,413.75 446.65,413.90 445.67,414.45 445.06,415.40 444.83,416.75"/>
    </edge>
    <edge id=":1245504056_1" function="internal">
        <lane id=":1245504056_1_0" index="0" disallow="tram rail_urban rail rail_electric rail_fast ship" speed="11.18" length="5.54" shape="448.01,413.75 442.48,413.58"/>
    </edge>
    <edge id=":1245504056_2" function="internal">
        <lane id=":1245504056_2_0" index="0" allow="pedestrian delivery bicycle" speed="5.05" length="5.01" shape="445.09,407.35 445.25,408.72 445.80,409.70 446.76,410.31 448.11,410.55"/>
    </edge>
    <edge id=":1245504056_3" function="internal">
        <lane id=":1245504056_3_0" index="0" allow="pedestrian delivery bicycle" speed="11.18" length="9.40" shape="445.09,407.35 444.83,416.75"/>
    </edge>
    <edge id=":1245504056_4" function="internal">
        <lane id=":1245504056_4_0" index="0" allow="pedestrian delivery bicycle" speed="5.93" length="7.32" shape="445.09,407.35 444.86,410.10 444.35,412.06 443.55,413.22 442.48,413.58"/>
    </edge>
    <edge id=":1245504056_5" function="internal">
        <lane id=":1245504056_5_0" index="0" disallow="tram rail_urban rail rail_electric rail_fast ship" speed="11.18" length="5.54" shape="442.57,410.38 448.11,410.55"/>
    </edge>
    <edge id=":1245504056_6" function="internal">
        <lane id=":1245504056_6_0" index="0" allow="pedestrian delivery bicycle" speed="5.94" length="1.39" shape="442.57,410.38 443.62,410.81 443.75,411.02"/>
    </edge>
    <edge id=":1245504056_7" function="internal">
        <lane id=":1245504056_7_0" index="0" allow="pedestrian delivery bicycle" speed="5.94" length="5.94" shape="443.75,411.02 444.35,412.01 444.75,413.99 444.83,416.75"/>
    </edge>
    <edge id=":1266252701_0" function="internal">
        <lane id=":1266252701_0_0" index="0" disallow="tram rail_urban rail rail_electric rail_fast ship" speed="6.29" length="8.17" shape="442.39,664.08 440.40,664.41 438.94,665.43 438.03,667.14 437.64,669.54"/>
    </edge>
    <edge id=":1266252701_1" function="internal">
        <lane id=":1266252701_1_0" index="0" disallow="tram rail_urban rail rail_electric rail_fast ship" speed="11.18" length="7.24" shape="442.39,664.08 435.15,663.98"/>
    </edge>
    <edge id=":1266252701_2" function="internal">
        <lane id=":1266252701_2_0" index="0" disallow="tram rail_urban rail rail_electric rail_fast ship" speed="3.65" length="4.67" shape="442.39,664.08 441.19,663.27 440.80,662.47 441.21,661.67 442.41,660.88"/>
    </edge>
    <edge id=":1266252701_3" function="internal">
        <lane id=":1266252701_3_0" index="0" disallow="tram rail_urban rail rail_electric rail_fast ship" speed="6.48" length="8.42" shape="437.44,655.23 437.90,657.69 438.88,659.45 440.38,660.51 442.41,660.88"/>
    </edge>
    <edge id=":1266252701_4" function="internal">
        <lane id=":1266252701_4_0" index="0" disallow="tram rail_urban rail rail_electric rail_fast ship" speed="11.18" length="14.32" shape="437.44,655.23 437.65,658.87 437.75,662.38 437.75,665.90 437.64,669.54"/>
    </edge>
    <edge id=":1266252701_5" function="internal">
        <lane id=":1266252701_5_0" index="0" disallow="tram rail_urban rail rail_electric rail_fast ship" speed="6.55" length="9.77" shape="437.44,655.23 437.53,659.08 437.17,661.83 436.38,663.46 435.15,663.98"/>
    </edge>
    <edge id=":1266252701_6" function="internal">
        <lane id=":1266252701_6_0" index="0" disallow="tram rail_urban rail rail_electric rail_fast ship" speed="11.18" length="7.33" shape="435.09,660.78 442.41,660.88"/>
    </edge>
    <edge id=":1266252701_7" function="internal">
        <lane id=":1266252701_7_0" index="0" disallow="tram rail_urban rail rail_electric rail_fast ship" speed="6.70" length="9.80" shape="435.09,660.78 436.34,661.35 437.18,663.00 437.62,665.73 437.64,669.54"/>
    </edge>
    <edge id=":1266252701_8" function="internal">
        <lane id=":1266252701_8_0" index="0" disallow="tram rail_urban rail rail_electric rail_fast ship" speed="3.65" length="4.68" shape="435.09,660.78 436.30,661.56 436.72,662.35 436.33,663.16 435.15,663.98"/>
    </edge>
    <edge id=":1266252704_0" function="internal">
        <lane id=":1266252704_0_0" index="0" allow="pedestrian delivery bicycle" speed="4.80" length="4.96" shape="441.27,532.86 441.40,534.31 441.94,535.30 442.86,535.82 444.18,535.87"/>
    </edge>
    <edge id=":1266252704_1" function="internal">
        <lane id=":1266252704_1_0" index="0" disallow="tram rail_urban rail rail_electric rail_fast ship" speed="13.41" length="4.62" shape="439.60,536.40 444.18,535.87"/>
        <lane id=":1266252704_1_1" index="1" disallow="tram rail_urban rail rail_electric rail_fast ship" speed="13.41" length="4.62" shape="439.96,539.58 444.55,539.05"/>
    </edge>
    <edge id=":1266252705_0" function="internal">
        <lane id=":1266252705_0_0" index="0" disallow="tram rail_urban rail rail_electric rail_fast ship" speed="3.65" length="4.67" shape="851.58,568.94 852.99,568.62 853.84,568.87 854.15,569.71 853.91,571.13"/>
    </edge>
    <edge id=":1266252708_0" function="internal">
        <lane id=":1266252708_0_0" index="0" allow="pedestrian delivery bicycle" speed="5.05" length="4.98" shape="534.12,666.13 532.74,666.29 531.75,666.84 531.14,667.78 530.90,669.10"/>
    </edge>
    <edge id=":1266252708_1" function="internal">
        <lane id=":1266252708_1_0" index="0" allow="pedestrian delivery bicycle" speed="8.37" length="9.11" shape="534.12,666.13 525.01,665.94"/>
    </edge>
    <edge id=":1266252708_2" function="internal">
        <lane id=":1266252708_2_0" index="0" allow="pedestrian delivery bicycle" speed="3.65" length="1.44" shape="534.12,666.13 532.94,665.31"/>
    </edge>
    <edge id=":1266252708_10" function="internal">
        <lane id=":1266252708_10_0" index="0" allow="pedestrian delivery bicycle" speed="3.65" length="3.23" shape="532.94,665.31 532.55,664.50 532.97,663.71 534.18,662.93"/>
    </edge>
    <edge id=":1266252708_3" function="internal">
        <lane id=":1266252708_3_0" index="0" allow="pedestrian delivery bicycle" speed="4.92" length="4.74" shape="531.15,660.10 531.31,661.32 531.87,662.19 532.83,662.73 534.18,662.93"/>
    </edge>
    <edge id=":1266252708_4" function="internal">
        <lane id=":1266252708_4_0" index="0" disallow="tram rail_urban rail rail_electric rail_fast ship" speed="13.41" length="9.00" shape="531.15,660.10 530.90,669.10"/>
        <lane id=":1266252708_4_1" index="1" disallow="tram rail_urban rail rail_electric rail_fast ship" speed="13.41" length="9.00" shape="527.95,660.02 527.70,669.01"/>
    </edge>
    <edge id=":1266252708_6" function="internal">
        <lane id=":1266252708_6_0" index="0" disallow="tram rail_urban rail rail_electric rail_fast ship" speed="5.92" length="7.27" shape="527.95,660.02 527.70,662.63 527.13,664.49 526.24,665.59 525.01,665.94"/>
    </edge>
    <edge id=":1266252708_7" function="internal">
        <lane id=":1266252708_7_0" index="0" allow="pedestrian delivery bicycle" speed="8.37" length="9.11" shape="525.08,662.74 534.18,662.93"/>
    </edge>
    <edge id=":1266252708_8" function="internal">
        <lane id=":1266252708_8_0" index="0" disallow="tram rail_urban rail rail_electric rail_fast ship" speed="5.97" length="1.54" shape="525.08,662.74 526.29,663.16 526.44,663.37"/>
    </edge>
    <edge id=":1266252708_9" function="internal">
        <lane id=":1266252708_9_0" index="0" disallow="tram rail_urban rail rail_electric rail_fast ship" speed="3.65" length="1.44" shape="525.08,662.74 526.26,663.57"/>
    </edge>
    <edge id=":1266252708_11" function="internal">
        <lane id=":1266252708_11_0" index="0" disallow="tram rail_urban rail rail_electric rail_fast ship" speed="5.97" length="5.92" shape="526.44,663.37 527.13,664.34 527.60,666.29 527.70,669.01"/>
    </edge>
    <edge id=":1266252708_12" function="internal">
        <lane id=":1266252708_12_0" index="0" disallow="tram rail_urban rail rail_electric rail_fast ship" speed="3.65" length="3.23" shape="526.26,663.57 526.64,664.38 526.23,665.17 525.01,665.94"/>
    </edge>
    <edge id=":1292524419_0" function="internal">
        <lane id=":1292524419_0_0" index="0" disallow="tram rail_urban rail rail_electric rail_fast ship" speed="11.45" length="5.44" shape="314.63,690.09 313.15,689.48 312.07,689.21 310.95,689.18 309.34,689.30"/>
    </edge>
    <edge id=":1292524419_1" function="internal">
        <lane id=":1292524419_1_0" index="0" disallow="tram rail_urban rail rail_electric rail_fast ship" speed="5.86" length="4.90" shape="314.63,690.09 313.61,689.46 312.88,688.58 312.46,687.46 312.32,686.10"/>
    </edge>
    <edge id=":1299054457_0" function="internal">
        <lane id=":1299054457_0_0" index="0" disallow="tram rail_urban rail rail_electric rail_fast ship" speed="11.18" length="0.30" shape="292.88,621.68 292.88,621.98"/>
    </edge>
    <edge id=":1323073740_0" function="internal">
        <lane id=":1323073740_0_0" index="0" allow="pedestrian delivery bicycle" speed="5.04" length="5.00" shape="593.49,376.03 592.12,376.18 591.14,376.72 590.52,377.67 590.28,379.02"/>
    </edge>
    <edge id=":1323073740_1" function="internal">
        <lane id=":1323073740_1_0" index="0" allow="pedestrian delivery bicycle" speed="5.56" length="10.16" shape="593.49,376.03 590.75,375.54 588.82,374.29 587.71,372.28 587.41,369.51"/>
    </edge>
    <edge id=":1323073740_2" function="internal">
        <lane id=":1323073740_2_0" index="0" allow="pedestrian delivery bicycle" speed="3.65" length="4.67" shape="593.49,376.03 592.32,375.19 591.95,374.38 592.37,373.59 593.60,372.83"/>
    </edge>
    <edge id=":1323073740_3" function="internal">
        <lane id=":1323073740_3_0" index="0" allow="pedestrian delivery bicycle" speed="5.04" length="5.00" shape="590.61,369.63 590.76,370.99 591.30,371.98 592.25,372.59 593.60,372.83"/>
    </edge>
    <edge id=":1323073740_4" function="internal">
        <lane id=":1323073740_4_0" index="0" allow="pedestrian delivery bicycle" speed="5.56" length="9.40" shape="590.61,369.63 590.28,379.02"/>
    </edge>
    <edge id=":1323073740_5" function="internal">
        <lane id=":1323073740_5_0" index="0" allow="pedestrian delivery bicycle" speed="3.65" length="4.67" shape="590.61,369.63 589.77,370.80 588.96,371.17 588.17,370.74 587.41,369.51"/>
    </edge>
    <edge id=":1323073740_6" function="internal">
        <lane id=":1323073740_6_0" index="0" allow="pedestrian delivery bicycle" speed="5.56" length="9.40" shape="587.08,378.91 587.41,369.51"/>
    </edge>
    <edge id=":1323073740_7" function="internal">
        <lane id=":1323073740_7_0" index="0" allow="pedestrian delivery bicycle" speed="5.56" length="10.16" shape="587.08,378.91 587.57,376.16 588.82,374.24 590.83,373.13 593.60,372.83"/>
    </edge>
    <edge id=":1323073740_8" function="internal">
        <lane id=":1323073740_8_0" index="0" allow="pedestrian delivery bicycle" speed="3.65" length="4.67" shape="587.08,378.91 587.92,377.73 588.74,377.36 589.52,377.79 590.28,379.02"/>
    </edge>
    <edge id=":1323073754_0" function="internal">
        <lane id=":1323073754_0_0" index="0" allow="pedestrian delivery bicycle" speed="4.79" length="4.40" shape="582.74,417.90 581.52,418.03 580.64,418.51 580.09,419.33 579.88,420.49"/>
    </edge>
    <edge id=":1323073754_1" function="internal">
        <lane id=":1323073754_1_0" index="0" disallow="tram rail_urban rail rail_electric rail_fast ship" speed="11.18" length="9.07" shape="582.74,417.90 573.67,417.60"/>
    </edge>
    <edge id=":1323073754_2" function="internal">
        <lane id=":1323073754_2_0" index="0" disallow="tram rail_urban rail rail_electric rail_fast ship" speed="11.18" length="9.07" shape="573.78,414.40 582.84,414.71"/>
    </edge>
    <edge id=":1323073754_3" function="internal">
        <lane id=":1323073754_3_0" index="0" allow="pedestrian delivery bicycle" speed="6.76" length="3.35" shape="573.78,414.40 576.53,414.86 577.01,415.16"/>
    </edge>
    <edge id=":1323073754_7" function="internal">
        <lane id=":1323073754_7_0" index="0" allow="pedestrian delivery bicycle" speed="6.76" length="6.48" shape="577.01,415.16 578.46,416.03 579.57,417.91 579.88,420.49"/>
    </edge>
    <edge id=":1323073754_4" function="internal">
        <lane id=":1323073754_4_0" index="0" allow="pedestrian delivery bicycle" speed="4.90" length="4.66" shape="576.68,420.38 576.53,419.20 575.97,418.35 575.02,417.81 573.67,417.60"/>
    </edge>
    <edge id=":1323073754_5" function="internal">
        <lane id=":1323073754_5_0" index="0" allow="pedestrian delivery bicycle" speed="6.68" length="9.55" shape="576.68,420.38 577.14,417.82 578.32,416.03 580.22,414.99 582.84,414.71"/>
    </edge>
    <edge id=":1323073754_6" function="internal">
        <lane id=":1323073754_6_0" index="0" allow="pedestrian delivery bicycle" speed="3.65" length="4.67" shape="576.68,420.38 577.52,419.21 578.33,418.84 579.12,419.27 579.88,420.49"/>
    </edge>
    <edge id=":1323073782_0" function="internal">
        <lane id=":1323073782_0_0" index="0" allow="pedestrian delivery bicycle" speed="5.21" length="5.20" shape="609.57,379.63 609.35,378.30 608.71,377.34 607.66,376.73 606.20,376.49"/>
    </edge>
    <edge id=":1323073782_1" function="internal">
        <lane id=":1323073782_1_0" index="0" allow="pedestrian delivery bicycle" speed="5.56" length="9.41" shape="609.57,379.63 609.45,370.22"/>
    </edge>
    <edge id=":1323073782_2" function="internal">
        <lane id=":1323073782_2_0" index="0" allow="pedestrian delivery bicycle" speed="3.65" length="4.67" shape="609.57,379.63 610.36,378.42 611.15,378.01 611.96,378.40 612.77,379.59"/>
    </edge>
    <edge id=":1323073782_3" function="internal">
        <lane id=":1323073782_3_0" index="0" allow="pedestrian delivery bicycle" speed="5.56" length="9.41" shape="612.65,370.18 612.77,379.59"/>
    </edge>
    <edge id=":1323073782_4" function="internal">
        <lane id=":1323073782_4_0" index="0" allow="pedestrian delivery bicycle" speed="5.56" length="10.41" shape="612.65,370.18 612.28,373.03 611.08,375.03 609.05,376.18 606.20,376.49"/>
    </edge>
    <edge id=":1323073782_5" function="internal">
        <lane id=":1323073782_5_0" index="0" allow="pedestrian delivery bicycle" speed="3.65" length="4.67" shape="612.65,370.18 611.87,371.39 611.07,371.80 610.27,371.41 609.45,370.22"/>
    </edge>
    <edge id=":1323073782_6" function="internal">
        <lane id=":1323073782_6_0" index="0" allow="pedestrian delivery bicycle" speed="4.99" length="5.06" shape="606.31,373.29 607.70,373.14 608.69,372.58 609.27,371.61 609.45,370.22"/>
    </edge>
    <edge id=":1323073782_7" function="internal">
        <lane id=":1323073782_7_0" index="0" allow="pedestrian delivery bicycle" speed="5.56" length="10.18" shape="606.31,373.29 609.11,373.77 611.12,374.98 612.34,376.92 612.77,379.59"/>
    </edge>
    <edge id=":1323073782_8" function="internal">
        <lane id=":1323073782_8_0" index="0" allow="pedestrian delivery bicycle" speed="3.65" length="4.67" shape="606.31,373.29 607.48,374.13 607.85,374.95 607.43,375.73 606.20,376.49"/>
    </edge>
    <edge id=":1323073792_0" function="internal">
        <lane id=":1323073792_0_0" index="0" allow="pedestrian delivery bicycle" speed="5.56" length="9.40" shape="615.26,476.28 614.91,485.67"/>
    </edge>
    <edge id=":1323073792_1" function="internal">
        <lane id=":1323073792_1_0" index="0" allow="pedestrian delivery bicycle" speed="5.56" length="10.16" shape="615.26,476.28 614.76,479.00 613.51,480.92 611.49,482.04 608.71,482.35"/>
    </edge>
    <edge id=":1323073792_2" function="internal">
        <lane id=":1323073792_2_0" index="0" allow="pedestrian delivery bicycle" speed="3.65" length="4.67" shape="615.26,476.28 614.42,477.44 613.60,477.81 612.82,477.38 612.06,476.16"/>
    </edge>
    <edge id=":1323073792_3" function="internal">
        <lane id=":1323073792_3_0" index="0" allow="pedestrian delivery bicycle" speed="5.07" length="5.04" shape="608.80,479.15 610.19,479.00 611.19,478.45 611.82,477.50 612.06,476.16"/>
    </edge>
    <edge id=":1323073792_4" function="internal">
        <lane id=":1323073792_4_0" index="0" allow="pedestrian delivery bicycle" speed="5.56" length="10.21" shape="608.80,479.15 611.56,479.62 613.50,480.87 614.62,482.89 614.91,485.67"/>
    </edge>
    <edge id=":1323073792_5" function="internal">
        <lane id=":1323073792_5_0" index="0" allow="pedestrian delivery bicycle" speed="3.65" length="4.67" shape="608.80,479.15 609.98,479.98 610.36,480.79 609.93,481.58 608.71,482.35"/>
    </edge>
    <edge id=":1323073792_6" function="internal">
        <lane id=":1323073792_6_0" index="0" allow="pedestrian delivery bicycle" speed="5.03" length="5.01" shape="611.71,485.55 611.57,484.18 611.02,483.19 610.07,482.58 608.71,482.35"/>
    </edge>
    <edge id=":1323073792_7" function="internal">
        <lane id=":1323073792_7_0" index="0" allow="pedestrian delivery bicycle" speed="5.56" length="9.40" shape="611.71,485.55 612.06,476.16"/>
    </edge>
    <edge id=":1323073792_8" function="internal">
        <lane id=":1323073792_8_0" index="0" allow="pedestrian delivery bicycle" speed="3.65" length="4.67" shape="611.71,485.55 612.55,484.38 613.37,484.01 614.15,484.44 614.91,485.67"/>
    </edge>
    <edge id=":1323073793_0" function="internal">
        <lane id=":1323073793_0_0" index="0" allow="pedestrian delivery bicycle" speed="4.98" length="4.88" shape="620.58,419.20 619.21,419.33 618.22,419.85 617.62,420.76 617.39,422.04"/>
    </edge>
    <edge id=":1323073793_1" function="internal">
        <lane id=":1323073793_1_0" index="0" disallow="tram rail_urban rail rail_electric rail_fast ship" speed="11.18" length="6.83" shape="620.58,419.20 613.76,418.96"/>
    </edge>
    <edge id=":1323073793_2" function="internal">
        <lane id=":1323073793_2_0" index="0" disallow="tram rail_urban rail rail_electric rail_fast ship" speed="11.18" length="6.83" shape="613.87,415.76 620.69,416.00"/>
    </edge>
    <edge id=":1323073793_3" function="internal">
        <lane id=":1323073793_3_0" index="0" allow="pedestrian delivery bicycle" speed="6.20" length="1.97" shape="613.87,415.76 615.47,416.20 615.68,416.43"/>
    </edge>
    <edge id=":1323073793_7" function="internal">
        <lane id=":1323073793_7_0" index="0" allow="pedestrian delivery bicycle" speed="6.20" length="6.08" shape="615.68,416.43 616.59,417.40 617.23,419.34 617.39,422.04"/>
    </edge>
    <edge id=":1323073793_4" function="internal">
        <lane id=":1323073793_4_0" index="0" allow="pedestrian delivery bicycle" speed="4.27" length="3.27" shape="614.19,421.96 614.27,421.07 614.36,420.10 614.25,419.30 613.76,418.96"/>
    </edge>
    <edge id=":1323073793_5" function="internal">
        <lane id=":1323073793_5_0" index="0" allow="pedestrian delivery bicycle" speed="6.81" length="10.07" shape="614.19,421.96 614.66,419.27 615.89,417.38 617.91,416.29 620.69,416.00"/>
    </edge>
    <edge id=":1323073793_6" function="internal">
        <lane id=":1323073793_6_0" index="0" allow="pedestrian delivery bicycle" speed="3.65" length="4.67" shape="614.19,421.96 615.02,420.78 615.83,420.40 616.62,420.82 617.39,422.04"/>
    </edge>
    <edge id=":1323073808_0" function="internal">
        <lane id=":1323073808_0_0" index="0" allow="pedestrian delivery bicycle" speed="5.14" length="5.13" shape="691.43,612.67 690.00,612.83 688.95,613.39 688.30,614.33 688.03,615.66"/>
    </edge>
    <edge id=":1323073808_1" function="internal">
        <lane id=":1323073808_1_0" index="0" allow="pedestrian delivery bicycle" speed="5.56" length="9.07" shape="691.43,612.67 688.62,612.31 686.65,611.37 685.51,609.84 685.22,607.71"/>
    </edge>
    <edge id=":1323073808_2" function="internal">
        <lane id=":1323073808_2_0" index="0" allow="pedestrian delivery bicycle" speed="3.65" length="4.67" shape="691.43,612.67 690.25,611.85 689.86,611.04 690.27,610.25 691.49,609.47"/>
    </edge>
    <edge id=":1323073808_3" function="internal">
        <lane id=":1323073808_3_0" index="0" allow="pedestrian delivery bicycle" speed="4.83" length="4.62" shape="688.47,606.80 688.61,607.95 689.16,608.77 690.12,609.28 691.49,609.47"/>
    </edge>
    <edge id=":1323073808_4" function="internal">