<?xml version="1.0" encoding="UTF-8"?>

<!-- generated on 2024-05-04 17:42:43 by Eclipse SUMO netedit Version 1.19.0
<configuration xmlns:xsi="http://www.w3.org/2001/XMLSchema-instance" xsi:noNamespaceSchemaLocation="http://sumo.dlr.de/xsd/neteditConfiguration.xsd">

    <input>
        <sumo-net-file value="jhumap2.net.xml"/>
    </input>

    <output>
        <output-file value="jhumap2.net.xml"/>
    </output>

    <processing>
        <geometry.min-radius.fix.railways value="false"/>
        <geometry.max-grade.fix value="false"/>
        <offset.disable-normalization value="true"/>
        <lefthand value="0"/>
    </processing>

    <junctions>
        <no-turnarounds value="true"/>
        <junctions.corner-detail value="5"/>
        <junctions.limit-turn-speed value="5.50"/>
        <rectangular-lane-cut value="0"/>
    </junctions>

    <pedestrian>
        <walkingareas value="0"/>
    </pedestrian>

</configuration>
-->

<net version="1.16" junctionCornerDetail="5" limitTurnSpeed="5.50" xmlns:xsi="http://www.w3.org/2001/XMLSchema-instance" xsi:noNamespaceSchemaLocation="http://sumo.dlr.de/xsd/net_file.xsd">

    <location netOffset="-360275.20,-4353890.41" convBoundary="0.00,149.21,869.10,1006.05" origBoundary="-76.621016,39.323201,-76.610995,39.332531" projParameter="+proj=utm +zone=18 +ellps=WGS84 +datum=WGS84 +units=m +no_defs"/>

    <type id="highway.cycleway" priority="1" numLanes="1" speed="5.56" allow="bicycle" oneway="0" width="2.00"/>
    <type id="highway.footway" priority="1" numLanes="1" speed="2.78" allow="pedestrian" oneway="1" width="2.00"/>
    <type id="highway.primary" priority="12" numLanes="2" speed="27.78" disallow="tram rail_urban rail rail_electric rail_fast ship" oneway="0"/>
    <type id="highway.residential" priority="3" numLanes="1" speed="13.89" disallow="tram rail_urban rail rail_electric rail_fast ship" oneway="0"/>
    <type id="highway.secondary" priority="11" numLanes="1" speed="27.78" disallow="tram rail_urban rail rail_electric rail_fast ship" oneway="0"/>
    <type id="highway.service" priority="1" numLanes="1" speed="5.56" allow="pedestrian delivery bicycle" oneway="0"/>
    <type id="highway.steps" priority="1" numLanes="1" speed="1.39" allow="pedestrian" oneway="1" width="2.00"/>

    <edge id=":1266252705_0" function="internal">
        <lane id=":1266252705_0_0" index="0" disallow="tram rail_urban rail rail_electric rail_fast ship" speed="3.65" length="4.67" shape="851.58,568.94 852.99,568.62 853.85,568.87 854.15,569.71 853.92,571.14"/>
    </edge>
    <edge id=":1323073740_0" function="internal">
        <lane id=":1323073740_0_0" index="0" allow="pedestrian delivery bicycle" speed="5.04" length="5.00" shape="593.49,376.03 592.13,376.17 591.14,376.72 590.52,377.67 590.28,379.02"/>
    </edge>
    <edge id=":1323073740_1" function="internal">
        <lane id=":1323073740_1_0" index="0" allow="pedestrian delivery bicycle" speed="5.56" length="10.16" shape="593.49,376.03 590.75,375.54 588.82,374.29 587.71,372.28 587.42,369.51"/>
    </edge>
    <edge id=":1323073740_2" function="internal">
        <lane id=":1323073740_2_0" index="0" allow="pedestrian delivery bicycle" speed="3.65" length="4.67" shape="593.49,376.03 592.32,375.19 591.95,374.37 592.38,373.59 593.61,372.83"/>
    </edge>
    <edge id=":1323073740_3" function="internal">
        <lane id=":1323073740_3_0" index="0" allow="pedestrian delivery bicycle" speed="5.04" length="5.00" shape="590.61,369.62 590.76,370.98 591.31,371.97 592.26,372.59 593.61,372.83"/>
    </edge>
    <edge id=":1323073740_4" function="internal">
        <lane id=":1323073740_4_0" index="0" allow="pedestrian delivery bicycle" speed="5.56" length="9.40" shape="590.61,369.62 590.28,379.02"/>
    </edge>
    <edge id=":1323073740_5" function="internal">
        <lane id=":1323073740_5_0" index="0" allow="pedestrian delivery bicycle" speed="3.65" length="4.67" shape="590.61,369.62 589.77,370.79 588.96,371.17 588.17,370.74 587.42,369.51"/>
    </edge>
    <edge id=":1323073740_6" function="internal">
        <lane id=":1323073740_6_0" index="0" allow="pedestrian delivery bicycle" speed="5.56" length="9.40" shape="587.08,378.90 587.42,369.51"/>
    </edge>
    <edge id=":1323073740_7" function="internal">
        <lane id=":1323073740_7_0" index="0" allow="pedestrian delivery bicycle" speed="5.56" length="10.16" shape="587.08,378.90 587.58,376.16 588.83,374.23 590.84,373.13 593.61,372.83"/>
    </edge>
    <edge id=":1323073740_8" function="internal">
        <lane id=":1323073740_8_0" index="0" allow="pedestrian delivery bicycle" speed="3.65" length="4.67" shape="587.08,378.90 587.93,377.73 588.74,377.36 589.52,377.79 590.28,379.02"/>
    </edge>
    <edge id=":1323073782_0" function="internal">
        <lane id=":1323073782_0_0" index="0" allow="pedestrian delivery bicycle" speed="5.21" length="5.20" shape="609.58,379.64 609.35,378.31 608.71,377.34 607.66,376.73 606.20,376.49"/>
    </edge>
    <edge id=":1323073782_1" function="internal">
        <lane id=":1323073782_1_0" index="0" allow="pedestrian delivery bicycle" speed="5.56" length="9.41" shape="609.58,379.64 609.45,370.23"/>
    </edge>
    <edge id=":1323073782_2" function="internal">
        <lane id=":1323073782_2_0" index="0" allow="pedestrian delivery bicycle" speed="3.65" length="4.67" shape="609.58,379.64 610.36,378.43 611.16,378.02 611.96,378.41 612.78,379.60"/>
    </edge>
    <edge id=":1323073782_3" function="internal">
        <lane id=":1323073782_3_0" index="0" allow="pedestrian delivery bicycle" speed="5.56" length="9.41" shape="612.65,370.18 612.78,379.60"/>
    </edge>
    <edge id=":1323073782_4" function="internal">
        <lane id=":1323073782_4_0" index="0" allow="pedestrian delivery bicycle" speed="5.56" length="10.41" shape="612.65,370.18 612.28,373.03 611.08,375.03 609.06,376.19 606.20,376.49"/>
    </edge>
    <edge id=":1323073782_5" function="internal">
        <lane id=":1323073782_5_0" index="0" allow="pedestrian delivery bicycle" speed="3.65" length="4.67" shape="612.65,370.18 611.87,371.39 611.07,371.81 610.27,371.42 609.45,370.23"/>
    </edge>
    <edge id=":1323073782_6" function="internal">
        <lane id=":1323073782_6_0" index="0" allow="pedestrian delivery bicycle" speed="4.99" length="5.06" shape="606.32,373.29 607.71,373.15 608.69,372.59 609.27,371.61 609.45,370.23"/>
    </edge>
    <edge id=":1323073782_7" function="internal">
        <lane id=":1323073782_7_0" index="0" allow="pedestrian delivery bicycle" speed="5.56" length="10.18" shape="606.32,373.29 609.11,373.78 611.12,374.99 612.34,376.93 612.78,379.60"/>
    </edge>
    <edge id=":1323073782_8" function="internal">
        <lane id=":1323073782_8_0" index="0" allow="pedestrian delivery bicycle" speed="3.65" length="4.67" shape="606.32,373.29 607.49,374.14 607.86,374.95 607.43,375.74 606.20,376.49"/>
    </edge>
    <edge id=":1323073792_0" function="internal">
        <lane id=":1323073792_0_0" index="0" allow="pedestrian delivery bicycle" speed="5.56" length="6.21" shape="615.26,476.27 615.03,482.47"/>
    </edge>
    <edge id=":1323073792_1" function="internal">
        <lane id=":1323073792_1_0" index="0" allow="pedestrian delivery bicycle" speed="3.65" length="4.67" shape="615.26,476.27 614.42,477.44 613.60,477.81 612.82,477.38 612.07,476.15"/>
    </edge>
    <edge id=":1323073792_2" function="internal">
        <lane id=":1323073792_2_0" index="0" allow="pedestrian delivery bicycle" speed="5.06" length="5.01" shape="608.84,479.15 610.21,478.99 611.20,478.44 611.82,477.50 612.07,476.15"/>
    </edge>
    <edge id=":1323073792_3" function="internal">
        <lane id=":1323073792_3_0" index="0" allow="pedestrian delivery bicycle" speed="5.56" length="7.78" shape="608.84,479.15 611.59,479.42 613.54,480.07 614.69,481.09 615.03,482.47"/>
    </edge>
    <edge id=":1323073792_4" function="internal">
        <lane id=":1323073792_4_0" index="0" allow="pedestrian delivery bicycle" speed="5.56" length="6.20" shape="611.83,482.35 612.07,476.15"/>
    </edge>
    <edge id=":1323073792_5" function="internal">
        <lane id=":1323073792_5_0" index="0" allow="pedestrian delivery bicycle" speed="3.65" length="4.67" shape="611.83,482.35 612.68,481.18 613.49,480.81 614.28,481.24 615.03,482.47"/>
    </edge>
    <edge id=":1323073809_0" function="internal">
        <lane id=":1323073809_0_0" index="0" allow="pedestrian delivery bicycle" speed="3.65" length="4.67" shape="609.26,356.23 610.04,355.02 610.84,354.61 611.64,355.00 612.46,356.19"/>
    </edge>
    <edge id=":1323073834_0" function="internal">
        <lane id=":1323073834_0_0" index="0" allow="pedestrian delivery bicycle" speed="5.56" length="9.38" shape="579.71,502.06 570.34,501.74"/>
    </edge>
    <edge id=":1323073834_1" function="internal">
        <lane id=":1323073834_1_0" index="0" allow="pedestrian delivery bicycle" speed="5.56" length="10.18" shape="579.71,502.06 576.96,501.57 575.04,500.31 573.93,498.30 573.65,495.52"/>
    </edge>
    <edge id=":1323073834_2" function="internal">
        <lane id=":1323073834_2_0" index="0" allow="pedestrian delivery bicycle" speed="3.65" length="4.67" shape="579.71,502.06 578.54,501.22 578.17,500.40 578.60,499.62 579.83,498.86"/>
    </edge>
    <edge id=":1323073834_3" function="internal">
        <lane id=":1323073834_3_0" index="0" allow="pedestrian delivery bicycle" speed="5.04" length="5.00" shape="576.84,495.65 576.99,497.01 577.53,498.00 578.48,498.62 579.83,498.86"/>
    </edge>
    <edge id=":1323073834_4" function="internal">
        <lane id=":1323073834_4_0" index="0" allow="pedestrian delivery bicycle" speed="5.56" length="10.15" shape="576.84,495.65 576.34,498.39 575.09,500.32 573.09,501.43 570.34,501.74"/>
    </edge>
    <edge id=":1323073834_5" function="internal">
        <lane id=":1323073834_5_0" index="0" allow="pedestrian delivery bicycle" speed="3.65" length="4.67" shape="576.84,495.65 576.00,496.81 575.18,497.18 574.40,496.75 573.65,495.52"/>
    </edge>
    <edge id=":1323073834_6" function="internal">
        <lane id=":1323073834_6_0" index="0" allow="pedestrian delivery bicycle" speed="5.06" length="5.02" shape="570.44,498.54 571.80,498.39 572.78,497.84 573.40,496.88 573.65,495.52"/>
    </edge>
    <edge id=":1323073834_7" function="internal">
        <lane id=":1323073834_7_0" index="0" allow="pedestrian delivery bicycle" speed="5.56" length="9.39" shape="570.44,498.54 579.83,498.86"/>
    </edge>
    <edge id=":1323073834_8" function="internal">
        <lane id=":1323073834_8_0" index="0" allow="pedestrian delivery bicycle" speed="3.65" length="4.67" shape="570.44,498.54 571.61,499.38 571.99,500.19 571.56,500.98 570.34,501.74"/>
    </edge>
    <edge id=":1323073846_0" function="internal">
        <lane id=":1323073846_0_0" index="0" allow="pedestrian delivery bicycle" speed="5.56" length="9.40" shape="617.34,503.43 607.94,503.09"/>
    </edge>
    <edge id=":1323073846_1" function="internal">
        <lane id=":1323073846_1_0" index="0" allow="pedestrian delivery bicycle" speed="5.56" length="10.17" shape="617.34,503.43 614.59,502.93 612.67,501.68 611.56,499.67 611.27,496.89"/>
    </edge>
    <edge id=":1323073846_2" function="internal">
        <lane id=":1323073846_2_0" index="0" allow="pedestrian delivery bicycle" speed="3.65" length="4.67" shape="617.34,503.43 616.17,502.58 615.80,501.77 616.23,500.99 617.45,500.23"/>
    </edge>
    <edge id=":1323073846_3" function="internal">
        <lane id=":1323073846_3_0" index="0" allow="pedestrian delivery bicycle" speed="5.04" length="5.00" shape="614.47,497.02 614.61,498.38 615.16,499.37 616.10,499.99 617.45,500.23"/>
    </edge>
    <edge id=":1323073846_4" function="internal">
        <lane id=":1323073846_4_0" index="0" allow="pedestrian delivery bicycle" speed="5.56" length="10.16" shape="614.47,497.02 613.97,499.76 612.72,501.68 610.71,502.79 607.94,503.09"/>
    </edge>
    <edge id=":1323073846_5" function="internal">
        <lane id=":1323073846_5_0" index="0" allow="pedestrian delivery bicycle" speed="3.65" length="4.67" shape="614.47,497.02 613.62,498.18 612.81,498.55 612.03,498.12 611.27,496.89"/>
    </edge>
    <edge id=":1323073846_6" function="internal">
        <lane id=":1323073846_6_0" index="0" allow="pedestrian delivery bicycle" speed="5.05" length="5.01" shape="608.06,499.89 609.42,499.75 610.41,499.20 611.03,498.25 611.27,496.89"/>
    </edge>
    <edge id=":1323073846_7" function="internal">
        <lane id=":1323073846_7_0" index="0" allow="pedestrian delivery bicycle" speed="5.56" length="9.40" shape="608.06,499.89 617.45,500.23"/>
    </edge>
    <edge id=":1323073846_8" function="internal">
        <lane id=":1323073846_8_0" index="0" allow="pedestrian delivery bicycle" speed="3.65" length="4.67" shape="608.06,499.89 609.23,500.73 609.60,501.55 609.17,502.33 607.94,503.09"/>
    </edge>
    <edge id=":1323073915_0" function="internal">
        <lane id=":1323073915_0_0" index="0" allow="pedestrian delivery bicycle" speed="3.65" length="4.67" shape="590.30,295.51 591.15,294.35 591.97,293.98 592.75,294.41 593.50,295.65"/>
    </edge>
    <edge id=":1323073926_0" function="internal">
        <lane id=":1323073926_0_0" index="0" allow="pedestrian delivery bicycle" speed="5.03" length="5.01" shape="577.66,475.15 577.80,476.52 578.34,477.51 579.29,478.12 580.65,478.35"/>
    </edge>
    <edge id=":1323073926_1" function="internal">
        <lane id=":1323073926_1_0" index="0" allow="pedestrian delivery bicycle" speed="5.56" length="6.20" shape="577.66,475.15 577.41,481.35"/>
    </edge>
    <edge id=":1323073926_2" function="internal">
        <lane id=":1323073926_2_0" index="0" allow="pedestrian delivery bicycle" speed="3.65" length="4.67" shape="577.66,475.15 576.81,476.32 576.00,476.68 575.21,476.25 574.46,475.02"/>
    </edge>
    <edge id=":1323073926_3" function="internal">
        <lane id=":1323073926_3_0" index="0" allow="pedestrian delivery bicycle" speed="5.56" length="6.20" shape="574.21,481.22 574.46,475.02"/>
    </edge>
    <edge id=":1323073926_4" function="internal">
        <lane id=":1323073926_4_0" index="0" allow="pedestrian delivery bicycle" speed="5.56" length="7.76" shape="574.21,481.22 574.66,479.90 575.88,478.98 577.88,478.47 580.65,478.35"/>
    </edge>
    <edge id=":1323073926_5" function="internal">
        <lane id=":1323073926_5_0" index="0" allow="pedestrian delivery bicycle" speed="3.65" length="4.67" shape="574.21,481.22 575.06,480.05 575.88,479.68 576.66,480.12 577.41,481.35"/>
    </edge>
    <edge id=":1323073933_0" function="internal">
        <lane id=":1323073933_0_0" index="0" allow="pedestrian delivery bicycle" speed="5.56" length="9.38" shape="615.99,457.27 615.62,466.65"/>
    </edge>
    <edge id=":1323073933_1" function="internal">
        <lane id=":1323073933_1_0" index="0" allow="pedestrian delivery bicycle" speed="5.56" length="10.17" shape="615.99,457.27 615.48,460.01 614.22,461.93 612.20,463.03 609.43,463.31"/>
    </edge>
    <edge id=":1323073933_2" function="internal">
        <lane id=":1323073933_2_0" index="0" allow="pedestrian delivery bicycle" speed="3.65" length="4.67" shape="615.99,457.27 615.14,458.44 614.33,458.81 613.54,458.38 612.79,457.14"/>
    </edge>
    <edge id=":1323073933_3" function="internal">
        <lane id=":1323073933_3_0" index="0" allow="pedestrian delivery bicycle" speed="5.04" length="5.00" shape="609.57,460.11 610.93,459.98 611.92,459.44 612.54,458.49 612.79,457.14"/>
    </edge>
    <edge id=":1323073933_4" function="internal">
        <lane id=":1323073933_4_0" index="0" allow="pedestrian delivery bicycle" speed="5.56" length="10.15" shape="609.57,460.11 612.30,460.62 614.23,461.88 615.33,463.89 615.62,466.65"/>
    </edge>
    <edge id=":1323073933_5" function="internal">
        <lane id=":1323073933_5_0" index="0" allow="pedestrian delivery bicycle" speed="3.65" length="4.67" shape="609.57,460.11 610.73,460.96 611.10,461.78 610.66,462.56 609.43,463.31"/>
    </edge>
    <edge id=":1323073933_6" function="internal">
        <lane id=":1323073933_6_0" index="0" allow="pedestrian delivery bicycle" speed="5.05" length="5.01" shape="612.43,466.53 612.28,465.17 611.74,464.18 610.78,463.56 609.43,463.31"/>
    </edge>
    <edge id=":1323073933_7" function="internal">
        <lane id=":1323073933_7_0" index="0" allow="pedestrian delivery bicycle" speed="5.56" length="9.39" shape="612.43,466.53 612.79,457.14"/>
    </edge>
    <edge id=":1323073933_8" function="internal">
        <lane id=":1323073933_8_0" index="0" allow="pedestrian delivery bicycle" speed="3.65" length="4.67" shape="612.43,466.53 613.27,465.36 614.08,464.99 614.87,465.42 615.62,466.65"/>
    </edge>
    <edge id=":1323073969_0" function="internal">
        <lane id=":1323073969_0_0" index="0" allow="pedestrian delivery bicycle" speed="5.04" length="5.00" shape="581.29,462.12 579.92,462.25 578.93,462.79 578.31,463.74 578.06,465.09"/>
    </edge>
    <edge id=":1323073969_1" function="internal">
        <lane id=":1323073969_1_0" index="0" allow="pedestrian delivery bicycle" speed="5.56" length="10.16" shape="581.29,462.12 578.55,461.61 576.63,460.35 575.53,458.33 575.25,455.56"/>
    </edge>
    <edge id=":1323073969_2" function="internal">
        <lane id=":1323073969_2_0" index="0" allow="pedestrian delivery bicycle" speed="3.65" length="4.67" shape="581.29,462.12 580.12,461.27 579.75,460.45 580.19,459.67 581.42,458.92"/>
    </edge>
    <edge id=":1323073969_3" function="internal">
        <lane id=":1323073969_3_0" index="0" allow="pedestrian delivery bicycle" speed="5.05" length="5.01" shape="578.44,455.69 578.58,457.06 579.12,458.05 580.07,458.67 581.42,458.92"/>
    </edge>
    <edge id=":1323073969_4" function="internal">
        <lane id=":1323073969_4_0" index="0" allow="pedestrian delivery bicycle" speed="5.56" length="9.40" shape="578.44,455.69 578.06,465.09"/>
    </edge>
    <edge id=":1323073969_5" function="internal">
        <lane id=":1323073969_5_0" index="0" allow="pedestrian delivery bicycle" speed="3.65" length="4.67" shape="578.44,455.69 577.59,456.86 576.78,457.23 576.00,456.79 575.25,455.56"/>
    </edge>
    <edge id=":1323073969_6" function="internal">
        <lane id=":1323073969_6_0" index="0" allow="pedestrian delivery bicycle" speed="5.56" length="9.41" shape="574.86,464.96 575.25,455.56"/>
    </edge>
    <edge id=":1323073969_7" function="internal">
        <lane id=":1323073969_7_0" index="0" allow="pedestrian delivery bicycle" speed="5.56" length="10.17" shape="574.86,464.96 575.37,462.22 576.63,460.30 578.65,459.20 581.42,458.92"/>
    </edge>
    <edge id=":1323073969_8" function="internal">
        <lane id=":1323073969_8_0" index="0" allow="pedestrian delivery bicycle" speed="3.65" length="4.67" shape="574.86,464.96 575.71,463.79 576.53,463.43 577.31,463.86 578.06,465.09"/>
    </edge>
    <edge id=":2044048365_0" function="internal">
        <lane id=":2044048365_0_0" index="0" allow="pedestrian delivery bicycle" speed="5.56" length="0.10" shape="264.54,627.72 264.54,627.72"/>
    </edge>
    <edge id=":2044048407_0" function="internal">
        <lane id=":2044048407_0_0" index="0" allow="pedestrian delivery bicycle" speed="5.56" length="0.10" shape="263.92,687.84 263.92,687.84"/>
    </edge>
    <edge id=":244352404_0" function="internal">
        <lane id=":244352404_0_0" index="0" allow="pedestrian delivery bicycle" speed="8.37" length="6.88" shape="275.26,678.36 276.96,676.80 278.18,675.38 278.93,674.08 279.21,672.91"/>
    </edge>
    <edge id=":244352404_1" function="internal">
        <lane id=":244352404_1_0" index="0" disallow="tram rail_urban rail rail_electric rail_fast ship" speed="11.18" length="7.26" shape="279.00,680.16 279.21,672.91"/>
    </edge>
    <edge id=":3729642852_0" function="internal">
        <lane id=":3729642852_0_0" index="0" disallow="tram rail_urban rail rail_electric rail_fast ship" speed="11.18" length="8.53" shape="282.06,589.27 281.63,586.79 280.58,585.22 279.53,583.64 279.13,581.16"/>
        <lane id=":3729642852_0_1" index="1" disallow="tram rail_urban rail rail_electric rail_fast ship" speed="11.18" length="8.53" shape="282.06,589.27 282.33,581.29"/>
        <lane id=":3729642852_0_2" index="2" disallow="tram rail_urban rail rail_electric rail_fast ship" speed="11.18" length="8.53" shape="282.06,589.27 282.63,586.84 283.77,585.34 284.93,583.85 285.53,581.42"/>
    </edge>
    <edge id=":4243517268_0" function="internal">
        <lane id=":4243517268_0_0" index="0" disallow="tram rail_urban rail rail_electric rail_fast ship" speed="12.29" length="0.30" shape="530.65,677.42 530.64,677.72"/>
        <lane id=":4243517268_0_1" index="1" disallow="tram rail_urban rail rail_electric rail_fast ship" speed="12.29" length="0.30" shape="527.46,677.32 527.45,677.62"/>
    </edge>
    <edge id=":4243517269_0" function="internal">
        <lane id=":4243517269_0_0" index="0" disallow="tram rail_urban rail rail_electric rail_fast ship" speed="12.29" length="0.10" shape="530.22,692.22 530.22,692.22"/>
        <lane id=":4243517269_0_1" index="1" disallow="tram rail_urban rail rail_electric rail_fast ship" speed="12.29" length="0.10" shape="527.02,692.12 527.02,692.12"/>
    </edge>
    <edge id=":4448396930_0" function="internal">
        <lane id=":4448396930_0_0" index="0" disallow="tram rail_urban rail rail_electric rail_fast ship" speed="11.18" length="0.10" shape="501.09,665.42 501.08,665.42"/>
    </edge>
    <edge id=":4448396930_1" function="internal">
        <lane id=":4448396930_1_0" index="0" disallow="tram rail_urban rail rail_electric rail_fast ship" speed="11.18" length="0.10" shape="501.16,662.22 501.15,662.22"/>
    </edge>
    <edge id=":4520038537_0" function="internal">
        <lane id=":4520038537_0_0" index="0" allow="pedestrian delivery bicycle" speed="5.56" length="4.63" shape="517.51,738.95 522.14,739.15"/>
    </edge>
    <edge id=":49391525_0" function="internal">
        <lane id=":49391525_0_0" index="0" allow="pedestrian delivery bicycle" speed="8.37" length="8.08" shape="280.08,648.10 279.91,645.81 279.23,644.34 278.10,643.01 276.56,641.15"/>
    </edge>
    <edge id=":49391525_1" function="internal">
        <lane id=":49391525_1_0" index="0" disallow="tram rail_urban rail rail_electric rail_fast ship" speed="11.18" length="8.13" shape="280.08,648.10 280.39,639.98"/>
    </edge>
    <edge id=":49454992_0" function="internal">
        <lane id=":49454992_0_0" index="0" disallow="tram rail_urban rail rail_electric rail_fast ship" speed="6.10" length="7.90" shape="307.68,409.64 305.21,409.83 303.45,410.56 302.37,411.83 302.00,413.64"/>
    </edge>
    <edge id=":49454992_1" function="internal">
        <lane id=":49454992_1_0" index="0" disallow="tram rail_urban rail rail_electric rail_fast ship" speed="3.65" length="4.67" shape="307.68,409.64 306.50,408.80 306.12,407.99 306.55,407.20 307.77,406.44"/>
    </edge>
    <edge id=":49454992_2" function="internal">
        <lane id=":49454992_2_0" index="0" disallow="tram rail_urban rail rail_electric rail_fast ship" speed="6.53" length="9.07" shape="302.27,400.68 302.56,403.14 303.57,404.92 305.31,406.02 307.77,406.44"/>
    </edge>
    <edge id=":49454992_3" function="internal">
        <lane id=":49454992_3_0" index="0" disallow="tram rail_urban rail rail_electric rail_fast ship" speed="11.18" length="12.98" shape="302.27,400.68 302.00,413.64"/>
        <lane id=":49454992_3_1" index="1" disallow="tram rail_urban rail rail_electric rail_fast ship" speed="11.18" length="12.98" shape="299.07,400.60 298.80,413.60"/>
    </edge>
    <edge id=":49455002_0" function="internal">
        <lane id=":49455002_0_0" index="0" disallow="tram rail_urban rail rail_electric rail_fast ship" speed="3.65" length="4.67" shape="772.35,421.07 773.53,421.91 773.90,422.72 773.47,423.51 772.25,424.27"/>
    </edge>
    <edge id=":49484036_0" function="internal">
        <lane id=":49484036_0_0" index="0" disallow="tram rail_urban rail rail_electric rail_fast ship" speed="11.18" length="0.30" shape="482.96,665.02 482.66,665.02"/>
    </edge>
    <edge id=":49484036_1" function="internal">
        <lane id=":49484036_1_0" index="0" disallow="tram rail_urban rail rail_electric rail_fast ship" speed="11.18" length="0.30" shape="482.74,661.82 483.03,661.82"/>
    </edge>
    <edge id=":49486841_0" function="internal">
        <lane id=":49486841_0_0" index="0" disallow="tram rail_urban rail rail_electric rail_fast ship" speed="3.65" length="4.67" shape="657.65,297.17 658.48,295.99 659.29,295.61 660.08,296.03 660.85,297.25"/>
    </edge>
    <edge id=":5674123834_0" function="internal">
        <lane id=":5674123834_0_0" index="0" allow="pedestrian delivery bicycle" speed="11.18" length="3.41" shape="444.76,419.18 444.66,422.59"/>
    </edge>
    <edge id=":5674141660_0" function="internal">
        <lane id=":5674141660_0_0" index="0" allow="pedestrian delivery bicycle" speed="6.71" length="4.12" shape="364.21,532.73 364.26,528.61"/>
    </edge>
    <edge id=":6139456201_0" function="internal">
        <lane id=":6139456201_0_0" index="0" disallow="tram rail_urban rail rail_electric rail_fast ship" speed="11.18" length="7.21" shape="294.06,585.78 294.21,587.89 294.70,589.30 295.19,590.71 295.34,592.82"/>
        <lane id=":6139456201_0_1" index="1" disallow="tram rail_urban rail rail_electric rail_fast ship" speed="11.18" length="7.21" shape="294.06,585.78 293.72,587.86 293.10,589.23 292.49,590.59 292.15,592.67"/>
    </edge>
    <edge id=":6301216129_0" function="internal">
        <lane id=":6301216129_0_0" index="0" allow="pedestrian delivery bicycle" speed="3.65" length="4.67" shape="491.78,292.13 492.46,290.86 493.22,290.39 494.06,290.71 494.96,291.83"/>
    </edge>
    <edge id=":6654011941_0" function="internal">
        <lane id=":6654011941_0_0" index="0" disallow="tram rail_urban rail rail_electric rail_fast ship" speed="11.18" length="5.02" shape="370.30,660.99 375.32,661.10"/>
    </edge>
    <edge id=":6799413617_0" function="internal">
        <lane id=":6799413617_0_0" index="0" disallow="tram rail_urban rail rail_electric rail_fast ship" speed="13.41" length="6.20" shape="528.86,736.28 528.66,742.47"/>
        <lane id=":6799413617_0_1" index="1" disallow="tram rail_urban rail rail_electric rail_fast ship" speed="13.41" length="6.20" shape="525.66,736.18 525.46,742.37"/>
    </edge>
    <edge id=":6799413617_2" function="internal">
        <lane id=":6799413617_2_0" index="0" allow="pedestrian delivery bicycle" speed="5.06" length="5.01" shape="522.45,739.16 523.80,739.41 524.76,740.03 525.31,741.02 525.46,742.37"/>
    </edge>
    <edge id=":740230117_0" function="internal">
        <lane id=":740230117_0_0" index="0" disallow="tram rail_urban rail rail_electric rail_fast ship" speed="3.65" length="4.67" shape="621.05,760.83 619.62,760.98 618.80,760.62 618.60,759.75 619.01,758.37"/>
    </edge>
    <edge id=":7647133912_0" function="internal">
        <lane id=":7647133912_0_0" index="0" disallow="tram rail_urban rail rail_electric rail_fast ship" speed="11.18" length="3.55" shape="301.99,413.84 301.95,417.39"/>
        <lane id=":7647133912_0_1" index="1" disallow="tram rail_urban rail rail_electric rail_fast ship" speed="11.18" length="3.55" shape="298.79,413.80 298.75,417.35"/>
    </edge>
    <edge id=":7647133913_0" function="internal">
        <lane id=":7647133913_0_0" index="0" allow="pedestrian delivery bicycle" speed="5.56" length="4.65" shape="311.47,412.98 311.31,417.63"/>
    </edge>
    <edge id=":7647133928_0" function="internal">
        <lane id=":7647133928_0_0" index="0" disallow="tram rail_urban rail rail_electric rail_fast ship" speed="11.18" length="7.21" shape="292.14,592.87 292.29,594.97 292.79,596.38 293.30,597.79 293.49,599.89"/>
    </edge>
    <edge id=":7647217675_0" function="internal">
        <lane id=":7647217675_0_0" index="0" disallow="tram rail_urban rail rail_electric rail_fast ship" speed="11.18" length="5.05" shape="280.61,634.49 280.81,629.45"/>
    </edge>
    <edge id=":7647217678_0" function="internal">
        <lane id=":7647217678_0_0" index="0" disallow="tram rail_urban rail rail_electric rail_fast ship" speed="11.18" length="5.95" shape="292.65,631.22 292.51,637.16"/>
    </edge>
    <edge id=":7647221258_0" function="internal">
        <lane id=":7647221258_0_0" index="0" disallow="tram rail_urban rail rail_electric rail_fast ship" speed="11.18" length="0.30" shape="278.88,685.18 278.88,684.88"/>
    </edge>
    <edge id=":7649708652_0" function="internal">
        <lane id=":7649708652_0_0" index="0" disallow="tram rail_urban rail rail_electric rail_fast ship" speed="13.41" length="5.37" shape="359.42,553.13 354.20,552.72"/>
        <lane id=":7649708652_0_1" index="1" disallow="tram rail_urban rail rail_electric rail_fast ship" speed="13.41" length="5.37" shape="359.79,549.95 354.31,549.52"/>
    </edge>
    <edge id=":8750045849_0" function="internal">
        <lane id=":8750045849_0_0" index="0" allow="pedestrian delivery bicycle" speed="5.56" length="0.10" shape="181.58,664.82 181.58,664.82"/>
    </edge>
    <edge id=":8907123781_0" function="internal">
        <lane id=":8907123781_0_0" index="0" allow="pedestrian delivery bicycle" speed="5.56" length="0.24" shape="194.23,692.78 194.28,692.84 194.31,692.88 194.35,692.91 194.40,692.96"/>
    </edge>
    <edge id=":9152246669_0" function="internal">
        <lane id=":9152246669_0_0" index="0" allow="pedestrian delivery bicycle" speed="5.56" length="5.46" shape="511.86,738.70 517.31,738.94"/>
    </edge>
    <edge id=":9152246695_0" function="internal">
        <lane id=":9152246695_0_0" index="0" allow="pedestrian delivery bicycle" speed="5.56" length="5.00" shape="438.39,733.84 443.39,733.92"/>
    </edge>
    <edge id=":9338705815_0" function="internal">